[root]
type=Root
children=system
eventq_index=0
full_system=false
sim_quantum=0
time_sync_enable=false
time_sync_period=100000000000
time_sync_spin_threshold=100000000

[system]
type=System
children=clk_domain cpu cpu_clk_domain cpu_voltage_domain dvfs_handler mem_ctrls ruby sys_port_proxy voltage_domain
boot_osflags=a
cache_line_size=64
clk_domain=system.clk_domain
default_p_state=UNDEFINED
eventq_index=0
exit_on_work_items=false
init_param=0
kernel=
kernel_addr_check=true
kernel_extras=
load_addr_mask=18446744073709551615
load_offset=0
mem_mode=timing
mem_ranges=0:536870911:0:0:0:0
memories=system.mem_ctrls
mmap_using_noreserve=false
multi_thread=false
num_work_ids=16
p_state_clk_gate_bins=20
p_state_clk_gate_max=1000000000000
p_state_clk_gate_min=1000
power_model=
readfile=
symbolfile=
thermal_components=
thermal_model=Null
work_begin_ckpt_count=0
work_begin_cpu_id_exit=-1
work_begin_exit_count=0
work_cpus_ckpt_count=0
work_end_ckpt_count=0
work_end_exit_count=0
work_item_id=-1
system_port=system.sys_port_proxy.slave[0]

[system.clk_domain]
type=SrcClockDomain
clock=1000
domain_id=-1
eventq_index=0
init_perf_level=0
voltage_domain=system.voltage_domain

[system.cpu]
type=TimingSimpleCPU
children=dstage2_mmu dtb interrupts isa istage2_mmu itb tracer workload
branchPred=Null
checker=Null
clk_domain=system.cpu_clk_domain
cpu_id=0
default_p_state=UNDEFINED
do_checkpoint_insts=true
do_quiesce=true
do_statistics_insts=true
dstage2_mmu=system.cpu.dstage2_mmu
dtb=system.cpu.dtb
eventq_index=0
function_trace=false
function_trace_start=0
interrupts=system.cpu.interrupts
isa=system.cpu.isa
istage2_mmu=system.cpu.istage2_mmu
itb=system.cpu.itb
max_insts_all_threads=0
max_insts_any_thread=0
max_loads_all_threads=0
max_loads_any_thread=0
numThreads=1
p_state_clk_gate_bins=20
p_state_clk_gate_max=1000000000000
p_state_clk_gate_min=1000
power_gating_on_idle=false
power_model=
profile=0
progress_interval=0
pwr_gating_latency=300
simpoint_start_insts=
socket_id=0
switched_out=false
syscallRetryLatency=10000
system=system
tracer=system.cpu.tracer
wait_for_remote_gdb=false
workload=system.cpu.workload
dcache_port=system.ruby.l1_cntrl0.sequencer.slave[1]
icache_port=system.ruby.l1_cntrl0.sequencer.slave[0]

[system.cpu.dstage2_mmu]
type=ArmStage2MMU
children=stage2_tlb
eventq_index=0
stage2_tlb=system.cpu.dstage2_mmu.stage2_tlb
sys=system
tlb=system.cpu.dtb

[system.cpu.dstage2_mmu.stage2_tlb]
type=ArmTLB
children=walker
eventq_index=0
is_stage2=true
size=32
sys=system
walker=system.cpu.dstage2_mmu.stage2_tlb.walker

[system.cpu.dstage2_mmu.stage2_tlb.walker]
type=ArmTableWalker
clk_domain=system.cpu_clk_domain
default_p_state=UNDEFINED
eventq_index=0
is_stage2=true
num_squash_per_cycle=2
p_state_clk_gate_bins=20
p_state_clk_gate_max=1000000000000
p_state_clk_gate_min=1000
power_model=
sys=system

[system.cpu.dtb]
type=ArmTLB
children=walker
eventq_index=0
is_stage2=false
size=64
sys=system
walker=system.cpu.dtb.walker

[system.cpu.dtb.walker]
type=ArmTableWalker
clk_domain=system.cpu_clk_domain
default_p_state=UNDEFINED
eventq_index=0
is_stage2=false
num_squash_per_cycle=2
p_state_clk_gate_bins=20
p_state_clk_gate_max=1000000000000
p_state_clk_gate_min=1000
power_model=
sys=system

[system.cpu.interrupts]
type=ArmInterrupts
eventq_index=0

[system.cpu.isa]
type=ArmISA
decoderFlavour=Generic
eventq_index=0
fpsid=1090793632
id_aa64afr0_el1=0
id_aa64afr1_el1=0
id_aa64dfr0_el1=1052678
id_aa64dfr1_el1=0
id_aa64isar0_el1=0
id_aa64isar1_el1=0
id_aa64mmfr0_el1=15728642
id_aa64mmfr1_el1=0
id_aa64mmfr2_el1=0
id_isar0=34607377
id_isar1=34677009
id_isar2=555950401
id_isar3=17899825
id_isar4=268501314
id_isar5=0
id_mmfr0=270536963
id_mmfr1=0
id_mmfr2=19070976
id_mmfr3=34611729
impdef_nop=false
midr=1091551472
pmu=Null
system=system
vecRegRenameMode=Full

[system.cpu.istage2_mmu]
type=ArmStage2MMU
children=stage2_tlb
eventq_index=0
stage2_tlb=system.cpu.istage2_mmu.stage2_tlb
sys=system
tlb=system.cpu.itb

[system.cpu.istage2_mmu.stage2_tlb]
type=ArmTLB
children=walker
eventq_index=0
is_stage2=true
size=32
sys=system
walker=system.cpu.istage2_mmu.stage2_tlb.walker

[system.cpu.istage2_mmu.stage2_tlb.walker]
type=ArmTableWalker
clk_domain=system.cpu_clk_domain
default_p_state=UNDEFINED
eventq_index=0
is_stage2=true
num_squash_per_cycle=2
p_state_clk_gate_bins=20
p_state_clk_gate_max=1000000000000
p_state_clk_gate_min=1000
power_model=
sys=system

[system.cpu.itb]
type=ArmTLB
children=walker
eventq_index=0
is_stage2=false
size=64
sys=system
walker=system.cpu.itb.walker

[system.cpu.itb.walker]
type=ArmTableWalker
clk_domain=system.cpu_clk_domain
default_p_state=UNDEFINED
eventq_index=0
is_stage2=false
num_squash_per_cycle=2
p_state_clk_gate_bins=20
p_state_clk_gate_max=1000000000000
p_state_clk_gate_min=1000
power_model=
sys=system

[system.cpu.tracer]
type=ExeTracer
eventq_index=0

[system.cpu.workload]
type=Process
cmd=/home/andrew/ece511/gem5/ece511/ece511_mp1/fft -m16 -p2
cwd=/home/andrew/ece511/gem5/ece511/ece511_mp1
drivers=
egid=100
env=
errout=cerr
euid=100
eventq_index=0
executable=/home/andrew/ece511/gem5/ece511/ece511_mp1/fft
gid=100
input=cin
kvmInSE=false
maxStackSize=67108864
output=cout
pgid=100
pid=100
ppid=0
simpoint=0
system=system
uid=100
useArchPT=false

[system.cpu_clk_domain]
type=SrcClockDomain
clock=500
domain_id=-1
eventq_index=0
init_perf_level=0
voltage_domain=system.cpu_voltage_domain

[system.cpu_voltage_domain]
type=VoltageDomain
eventq_index=0
voltage=1.0

[system.dvfs_handler]
type=DVFSHandler
domains=
enable=false
eventq_index=0
sys_clk_domain=system.clk_domain
transition_latency=100000000

[system.mem_ctrls]
type=DRAMCtrl
IDD0=0.055
IDD02=0.0
IDD2N=0.032
IDD2N2=0.0
IDD2P0=0.0
IDD2P02=0.0
IDD2P1=0.032
IDD2P12=0.0
IDD3N=0.038
IDD3N2=0.0
IDD3P0=0.0
IDD3P02=0.0
IDD3P1=0.038
IDD3P12=0.0
IDD4R=0.157
IDD4R2=0.0
IDD4W=0.125
IDD4W2=0.0
IDD5=0.235
IDD52=0.0
IDD6=0.02
IDD62=0.0
VDD=1.5
VDD2=0.0
activation_limit=4
addr_mapping=RoRaBaCoCh
bank_groups_per_rank=0
banks_per_rank=8
burst_length=8
channels=1
clk_domain=system.clk_domain
conf_table_reported=true
default_p_state=UNDEFINED
device_bus_width=8
device_rowbuffer_size=1024
device_size=536870912
devices_per_rank=8
dll=true
eventq_index=0
in_addr_map=true
kvm_map=true
max_accesses_per_row=16
mem_sched_policy=frfcfs
min_writes_per_switch=16
null=false
p_state_clk_gate_bins=20
p_state_clk_gate_max=1000000000000
p_state_clk_gate_min=1000
page_policy=open_adaptive
power_model=
qos_masters=               
qos_policy=Null
qos_priorities=1
qos_priority_escalation=false
qos_q_policy=fifo
qos_syncro_scheduler=false
qos_turnaround_policy=Null
range=0:536870911:5:19:0:0
ranks_per_channel=2
read_buffer_size=32
static_backend_latency=10000
static_frontend_latency=10000
tBURST=5000
tCCD_L=0
tCCD_L_WR=0
tCK=1250
tCL=13750
tCS=2500
tRAS=35000
tRCD=13750
tREFI=7800000
tRFC=260000
tRP=13750
tRRD=6000
tRRD_L=0
tRTP=7500
tRTW=2500
tWR=15000
tWTR=7500
tXAW=30000
tXP=6000
tXPDLL=0
tXS=270000
tXSDLL=0
write_buffer_size=64
write_high_thresh_perc=85
write_low_thresh_perc=50
port=system.ruby.dir_cntrl0.memory

[system.ruby]
type=RubySystem
children=clk_domain dir_cntrl0 l1_cntrl0 l2_cntrl0 l2_cntrl1 memctrl_clk_domain network
access_backing_store=false
all_instructions=false
block_size_bytes=64
clk_domain=system.ruby.clk_domain
default_p_state=UNDEFINED
eventq_index=0
hot_lines=false
memory_size_bits=48
num_of_sequencers=1
number_of_virtual_networks=3
p_state_clk_gate_bins=20
p_state_clk_gate_max=1000000000000
p_state_clk_gate_min=1000
phys_mem=Null
power_model=
randomization=false

[system.ruby.clk_domain]
type=SrcClockDomain
clock=500
domain_id=-1
eventq_index=0
init_perf_level=0
voltage_domain=system.voltage_domain

[system.ruby.dir_cntrl0]
type=Directory_Controller
children=directory forwardFromDir requestToDir responseFromDir responseFromMemory responseToDir
addr_ranges=0:536870911:5:19:0:0
buffer_size=0
clk_domain=system.ruby.clk_domain
cluster_id=0
default_p_state=UNDEFINED
directory=system.ruby.dir_cntrl0.directory
directory_latency=6
eventq_index=0
forwardFromDir=system.ruby.dir_cntrl0.forwardFromDir
number_of_TBEs=256
p_state_clk_gate_bins=20
p_state_clk_gate_max=1000000000000
p_state_clk_gate_min=1000
power_model=
recycle_latency=10
requestToDir=system.ruby.dir_cntrl0.requestToDir
responseFromDir=system.ruby.dir_cntrl0.responseFromDir
responseFromMemory=system.ruby.dir_cntrl0.responseFromMemory
responseToDir=system.ruby.dir_cntrl0.responseToDir
ruby_system=system.ruby
system=system
to_memory_controller_latency=1
transitions_per_cycle=32
version=0
memory=system.mem_ctrls.port

[system.ruby.dir_cntrl0.directory]
type=RubyDirectoryMemory
addr_ranges=0:536870911:5:19:0:0
eventq_index=0

[system.ruby.dir_cntrl0.forwardFromDir]
type=MessageBuffer
buffer_size=0
eventq_index=0
ordered=false
randomization=false
master=system.ruby.network.slave[9]

[system.ruby.dir_cntrl0.requestToDir]
type=MessageBuffer
buffer_size=0
eventq_index=0
ordered=false
randomization=false
slave=system.ruby.network.master[8]

[system.ruby.dir_cntrl0.responseFromDir]
type=MessageBuffer
buffer_size=0
eventq_index=0
ordered=false
randomization=false
master=system.ruby.network.slave[8]

[system.ruby.dir_cntrl0.responseFromMemory]
type=MessageBuffer
buffer_size=0
eventq_index=0
ordered=false
randomization=false

[system.ruby.dir_cntrl0.responseToDir]
type=MessageBuffer
buffer_size=0
eventq_index=0
ordered=false
randomization=false
slave=system.ruby.network.master[9]

[system.ruby.l1_cntrl0]
type=L1Cache_Controller
children=L1Dcache L1Icache mandatoryQueue requestFromL1Cache requestToL1Cache responseFromL1Cache responseToL1Cache sequencer triggerQueue
L1Dcache=system.ruby.l1_cntrl0.L1Dcache
L1Icache=system.ruby.l1_cntrl0.L1Icache
addr_ranges=0:18446744073709551615:0:0:0:0
buffer_size=0
clk_domain=system.cpu_clk_domain
cluster_id=0
default_p_state=UNDEFINED
eventq_index=0
l2_select_num_bits=1
mandatoryQueue=system.ruby.l1_cntrl0.mandatoryQueue
number_of_TBEs=256
p_state_clk_gate_bins=20
p_state_clk_gate_max=1000000000000
p_state_clk_gate_min=1000
power_model=
recycle_latency=10
requestFromL1Cache=system.ruby.l1_cntrl0.requestFromL1Cache
requestToL1Cache=system.ruby.l1_cntrl0.requestToL1Cache
request_latency=2
responseFromL1Cache=system.ruby.l1_cntrl0.responseFromL1Cache
responseToL1Cache=system.ruby.l1_cntrl0.responseToL1Cache
ruby_system=system.ruby
send_evictions=true
sequencer=system.ruby.l1_cntrl0.sequencer
system=system
transitions_per_cycle=4
triggerQueue=system.ruby.l1_cntrl0.triggerQueue
use_timeout_latency=50
version=0

[system.ruby.l1_cntrl0.L1Dcache]
type=RubyCache
children=replacement_policy
assoc=8
block_size=0
dataAccessLatency=1
dataArrayBanks=1
eventq_index=0
is_icache=false
replacement_policy=system.ruby.l1_cntrl0.L1Dcache.replacement_policy
resourceStalls=false
ruby_system=system.ruby
size=65536
start_index_bit=6
tagAccessLatency=1
tagArrayBanks=1

[system.ruby.l1_cntrl0.L1Dcache.replacement_policy]
type=PseudoLRUReplacementPolicy
assoc=8
block_size=64
eventq_index=0
size=65536

[system.ruby.l1_cntrl0.L1Icache]
type=RubyCache
children=replacement_policy
assoc=8
block_size=0
dataAccessLatency=1
dataArrayBanks=1
eventq_index=0
is_icache=true
replacement_policy=system.ruby.l1_cntrl0.L1Icache.replacement_policy
resourceStalls=false
ruby_system=system.ruby
size=65536
start_index_bit=6
tagAccessLatency=1
tagArrayBanks=1

[system.ruby.l1_cntrl0.L1Icache.replacement_policy]
type=PseudoLRUReplacementPolicy
assoc=8
block_size=64
eventq_index=0
size=65536

[system.ruby.l1_cntrl0.mandatoryQueue]
type=MessageBuffer
buffer_size=0
eventq_index=0
ordered=false
randomization=false

[system.ruby.l1_cntrl0.requestFromL1Cache]
type=MessageBuffer
buffer_size=0
eventq_index=0
ordered=false
randomization=false
master=system.ruby.network.slave[0]

[system.ruby.l1_cntrl0.requestToL1Cache]
type=MessageBuffer
buffer_size=0
eventq_index=0
ordered=false
randomization=false
slave=system.ruby.network.master[0]

[system.ruby.l1_cntrl0.responseFromL1Cache]
type=MessageBuffer
buffer_size=0
eventq_index=0
ordered=false
randomization=false
master=system.ruby.network.slave[1]

[system.ruby.l1_cntrl0.responseToL1Cache]
type=MessageBuffer
buffer_size=0
eventq_index=0
ordered=false
randomization=false
slave=system.ruby.network.master[1]

[system.ruby.l1_cntrl0.sequencer]
type=RubySequencer
clk_domain=system.cpu_clk_domain
coreid=99
dcache=system.ruby.l1_cntrl0.L1Dcache
dcache_hit_latency=1
deadlock_threshold=500000
default_p_state=UNDEFINED
eventq_index=0
garnet_standalone=false
icache=system.ruby.l1_cntrl0.L1Icache
icache_hit_latency=1
is_cpu_sequencer=true
max_outstanding_requests=16
no_retry_on_stall=false
p_state_clk_gate_bins=20
p_state_clk_gate_max=1000000000000
p_state_clk_gate_min=1000
power_model=
ruby_system=system.ruby
support_data_reqs=true
support_inst_reqs=true
system=system
using_ruby_tester=false
version=0
slave=system.cpu.icache_port system.cpu.dcache_port

[system.ruby.l1_cntrl0.triggerQueue]
type=MessageBuffer
buffer_size=0
eventq_index=0
ordered=true
randomization=false

[system.ruby.l2_cntrl0]
type=L2Cache_Controller
children=GlobalRequestFromL2Cache GlobalRequestToL2Cache L1RequestFromL2Cache L1RequestToL2Cache L2cache responseFromL2Cache responseToL2Cache triggerQueue
GlobalRequestFromL2Cache=system.ruby.l2_cntrl0.GlobalRequestFromL2Cache
GlobalRequestToL2Cache=system.ruby.l2_cntrl0.GlobalRequestToL2Cache
L1RequestFromL2Cache=system.ruby.l2_cntrl0.L1RequestFromL2Cache
L1RequestToL2Cache=system.ruby.l2_cntrl0.L1RequestToL2Cache
L2cache=system.ruby.l2_cntrl0.L2cache
addr_ranges=0:18446744073709551615:0:0:0:0
buffer_size=0
clk_domain=system.ruby.clk_domain
cluster_id=0
default_p_state=UNDEFINED
eventq_index=0
number_of_TBEs=256
p_state_clk_gate_bins=20
p_state_clk_gate_max=1000000000000
p_state_clk_gate_min=1000
power_model=
recycle_latency=10
request_latency=2
responseFromL2Cache=system.ruby.l2_cntrl0.responseFromL2Cache
responseToL2Cache=system.ruby.l2_cntrl0.responseToL2Cache
response_latency=2
ruby_system=system.ruby
system=system
transitions_per_cycle=4
triggerQueue=system.ruby.l2_cntrl0.triggerQueue
version=0

[system.ruby.l2_cntrl0.GlobalRequestFromL2Cache]
type=MessageBuffer
buffer_size=0
eventq_index=0
ordered=false
randomization=false
master=system.ruby.network.slave[2]

[system.ruby.l2_cntrl0.GlobalRequestToL2Cache]
type=MessageBuffer
buffer_size=0
eventq_index=0
ordered=false
randomization=false
slave=system.ruby.network.master[2]

[system.ruby.l2_cntrl0.L1RequestFromL2Cache]
type=MessageBuffer
buffer_size=0
eventq_index=0
ordered=false
randomization=false
master=system.ruby.network.slave[3]

[system.ruby.l2_cntrl0.L1RequestToL2Cache]
type=MessageBuffer
buffer_size=0
eventq_index=0
ordered=false
randomization=false
slave=system.ruby.network.master[3]

[system.ruby.l2_cntrl0.L2cache]
type=RubyCache
children=replacement_policy
assoc=8
block_size=0
dataAccessLatency=1
dataArrayBanks=1
eventq_index=0
is_icache=false
replacement_policy=system.ruby.l2_cntrl0.L2cache.replacement_policy
resourceStalls=false
ruby_system=system.ruby
size=262144
start_index_bit=7
tagAccessLatency=1
tagArrayBanks=1

[system.ruby.l2_cntrl0.L2cache.replacement_policy]
type=PseudoLRUReplacementPolicy
assoc=8
block_size=64
eventq_index=0
size=262144

[system.ruby.l2_cntrl0.responseFromL2Cache]
type=MessageBuffer
buffer_size=0
eventq_index=0
ordered=false
randomization=false
master=system.ruby.network.slave[4]

[system.ruby.l2_cntrl0.responseToL2Cache]
type=MessageBuffer
buffer_size=0
eventq_index=0
ordered=false
randomization=false
slave=system.ruby.network.master[4]

[system.ruby.l2_cntrl0.triggerQueue]
type=MessageBuffer
buffer_size=0
eventq_index=0
ordered=true
randomization=false

[system.ruby.l2_cntrl1]
type=L2Cache_Controller
children=GlobalRequestFromL2Cache GlobalRequestToL2Cache L1RequestFromL2Cache L1RequestToL2Cache L2cache responseFromL2Cache responseToL2Cache triggerQueue
GlobalRequestFromL2Cache=system.ruby.l2_cntrl1.GlobalRequestFromL2Cache
GlobalRequestToL2Cache=system.ruby.l2_cntrl1.GlobalRequestToL2Cache
L1RequestFromL2Cache=system.ruby.l2_cntrl1.L1RequestFromL2Cache
L1RequestToL2Cache=system.ruby.l2_cntrl1.L1RequestToL2Cache
L2cache=system.ruby.l2_cntrl1.L2cache
addr_ranges=0:18446744073709551615:0:0:0:0
buffer_size=0
clk_domain=system.ruby.clk_domain
cluster_id=0
default_p_state=UNDEFINED
eventq_index=0
number_of_TBEs=256
p_state_clk_gate_bins=20
p_state_clk_gate_max=1000000000000
p_state_clk_gate_min=1000
power_model=
recycle_latency=10
request_latency=2
responseFromL2Cache=system.ruby.l2_cntrl1.responseFromL2Cache
responseToL2Cache=system.ruby.l2_cntrl1.responseToL2Cache
response_latency=2
ruby_system=system.ruby
system=system
transitions_per_cycle=4
triggerQueue=system.ruby.l2_cntrl1.triggerQueue
version=1

[system.ruby.l2_cntrl1.GlobalRequestFromL2Cache]
type=MessageBuffer
buffer_size=0
eventq_index=0
ordered=false
randomization=false
master=system.ruby.network.slave[5]

[system.ruby.l2_cntrl1.GlobalRequestToL2Cache]
type=MessageBuffer
buffer_size=0
eventq_index=0
ordered=false
randomization=false
slave=system.ruby.network.master[5]

[system.ruby.l2_cntrl1.L1RequestFromL2Cache]
type=MessageBuffer
buffer_size=0
eventq_index=0
ordered=false
randomization=false
master=system.ruby.network.slave[6]

[system.ruby.l2_cntrl1.L1RequestToL2Cache]
type=MessageBuffer
buffer_size=0
eventq_index=0
ordered=false
randomization=false
slave=system.ruby.network.master[6]

[system.ruby.l2_cntrl1.L2cache]
type=RubyCache
children=replacement_policy
assoc=8
block_size=0
dataAccessLatency=1
dataArrayBanks=1
eventq_index=0
is_icache=false
replacement_policy=system.ruby.l2_cntrl1.L2cache.replacement_policy
resourceStalls=false
ruby_system=system.ruby
size=262144
start_index_bit=7
tagAccessLatency=1
tagArrayBanks=1

[system.ruby.l2_cntrl1.L2cache.replacement_policy]
type=PseudoLRUReplacementPolicy
assoc=8
block_size=64
eventq_index=0
size=262144

[system.ruby.l2_cntrl1.responseFromL2Cache]
type=MessageBuffer
buffer_size=0
eventq_index=0
ordered=false
randomization=false
master=system.ruby.network.slave[7]

[system.ruby.l2_cntrl1.responseToL2Cache]
type=MessageBuffer
buffer_size=0
eventq_index=0
ordered=false
randomization=false
slave=system.ruby.network.master[7]

[system.ruby.l2_cntrl1.triggerQueue]
type=MessageBuffer
buffer_size=0
eventq_index=0
ordered=true
randomization=false

[system.ruby.memctrl_clk_domain]
type=DerivedClockDomain
clk_divider=3
clk_domain=system.ruby.clk_domain
eventq_index=0

[system.ruby.network]
type=SimpleNetwork
children=ext_links0 ext_links1 ext_links2 ext_links3 int_link_buffers00 int_link_buffers01 int_link_buffers02 int_link_buffers03 int_link_buffers04 int_link_buffers05 int_link_buffers06 int_link_buffers07 int_link_buffers08 int_link_buffers09 int_link_buffers10 int_link_buffers11 int_link_buffers12 int_link_buffers13 int_link_buffers14 int_link_buffers15 int_link_buffers16 int_link_buffers17 int_link_buffers18 int_link_buffers19 int_link_buffers20 int_link_buffers21 int_link_buffers22 int_link_buffers23 int_link_buffers24 int_link_buffers25 int_link_buffers26 int_link_buffers27 int_link_buffers28 int_link_buffers29 int_link_buffers30 int_link_buffers31 int_link_buffers32 int_link_buffers33 int_link_buffers34 int_link_buffers35 int_link_buffers36 int_link_buffers37 int_link_buffers38 int_link_buffers39 int_link_buffers40 int_link_buffers41 int_link_buffers42 int_link_buffers43 int_link_buffers44 int_link_buffers45 int_link_buffers46 int_link_buffers47 int_links0 int_links1 int_links2 int_links3 int_links4 int_links5 int_links6 int_links7 routers0 routers1 routers2 routers3 routers4
adaptive_routing=false
buffer_size=0
clk_domain=system.ruby.clk_domain
control_msg_size=8
default_p_state=UNDEFINED
endpoint_bandwidth=1000
eventq_index=0
ext_links=system.ruby.network.ext_links0 system.ruby.network.ext_links1 system.ruby.network.ext_links2 system.ruby.network.ext_links3
int_link_buffers=system.ruby.network.int_link_buffers00 system.ruby.network.int_link_buffers01 system.ruby.network.int_link_buffers02 system.ruby.network.int_link_buffers03 system.ruby.network.int_link_buffers04 system.ruby.network.int_link_buffers05 system.ruby.network.int_link_buffers06 system.ruby.network.int_link_buffers07 system.ruby.network.int_link_buffers08 system.ruby.network.int_link_buffers09 system.ruby.network.int_link_buffers10 system.ruby.network.int_link_buffers11 system.ruby.network.int_link_buffers12 system.ruby.network.int_link_buffers13 system.ruby.network.int_link_buffers14 system.ruby.network.int_link_buffers15 system.ruby.network.int_link_buffers16 system.ruby.network.int_link_buffers17 system.ruby.network.int_link_buffers18 system.ruby.network.int_link_buffers19 system.ruby.network.int_link_buffers20 system.ruby.network.int_link_buffers21 system.ruby.network.int_link_buffers22 system.ruby.network.int_link_buffers23 system.ruby.network.int_link_buffers24 system.ruby.network.int_link_buffers25 system.ruby.network.int_link_buffers26 system.ruby.network.int_link_buffers27 system.ruby.network.int_link_buffers28 system.ruby.network.int_link_buffers29 system.ruby.network.int_link_buffers30 system.ruby.network.int_link_buffers31 system.ruby.network.int_link_buffers32 system.ruby.network.int_link_buffers33 system.ruby.network.int_link_buffers34 system.ruby.network.int_link_buffers35 system.ruby.network.int_link_buffers36 system.ruby.network.int_link_buffers37 system.ruby.network.int_link_buffers38 system.ruby.network.int_link_buffers39 system.ruby.network.int_link_buffers40 system.ruby.network.int_link_buffers41 system.ruby.network.int_link_buffers42 system.ruby.network.int_link_buffers43 system.ruby.network.int_link_buffers44 system.ruby.network.int_link_buffers45 system.ruby.network.int_link_buffers46 system.ruby.network.int_link_buffers47
int_links=system.ruby.network.int_links0 system.ruby.network.int_links1 system.ruby.network.int_links2 system.ruby.network.int_links3 system.ruby.network.int_links4 system.ruby.network.int_links5 system.ruby.network.int_links6 system.ruby.network.int_links7
netifs=
number_of_virtual_networks=3
p_state_clk_gate_bins=20
p_state_clk_gate_max=1000000000000
p_state_clk_gate_min=1000
power_model=
routers=system.ruby.network.routers0 system.ruby.network.routers1 system.ruby.network.routers2 system.ruby.network.routers3 system.ruby.network.routers4
ruby_system=system.ruby
topology=Crossbar
master=system.ruby.l1_cntrl0.requestToL1Cache.slave system.ruby.l1_cntrl0.responseToL1Cache.slave system.ruby.l2_cntrl0.GlobalRequestToL2Cache.slave system.ruby.l2_cntrl0.L1RequestToL2Cache.slave system.ruby.l2_cntrl0.responseToL2Cache.slave system.ruby.l2_cntrl1.GlobalRequestToL2Cache.slave system.ruby.l2_cntrl1.L1RequestToL2Cache.slave system.ruby.l2_cntrl1.responseToL2Cache.slave system.ruby.dir_cntrl0.requestToDir.slave system.ruby.dir_cntrl0.responseToDir.slave
slave=system.ruby.l1_cntrl0.requestFromL1Cache.master system.ruby.l1_cntrl0.responseFromL1Cache.master system.ruby.l2_cntrl0.GlobalRequestFromL2Cache.master system.ruby.l2_cntrl0.L1RequestFromL2Cache.master system.ruby.l2_cntrl0.responseFromL2Cache.master system.ruby.l2_cntrl1.GlobalRequestFromL2Cache.master system.ruby.l2_cntrl1.L1RequestFromL2Cache.master system.ruby.l2_cntrl1.responseFromL2Cache.master system.ruby.dir_cntrl0.responseFromDir.master system.ruby.dir_cntrl0.forwardFromDir.master

[system.ruby.network.ext_links0]
type=SimpleExtLink
bandwidth_factor=16
eventq_index=0
ext_node=system.ruby.l1_cntrl0
int_node=system.ruby.network.routers0
latency=1
link_id=0
weight=1

[system.ruby.network.ext_links1]
type=SimpleExtLink
bandwidth_factor=16
eventq_index=0
ext_node=system.ruby.l2_cntrl0
int_node=system.ruby.network.routers1
latency=1
link_id=1
weight=1

[system.ruby.network.ext_links2]
type=SimpleExtLink
bandwidth_factor=16
eventq_index=0
ext_node=system.ruby.l2_cntrl1
int_node=system.ruby.network.routers2
latency=1
link_id=2
weight=1

[system.ruby.network.ext_links3]
type=SimpleExtLink
bandwidth_factor=16
eventq_index=0
ext_node=system.ruby.dir_cntrl0
int_node=system.ruby.network.routers3
latency=1
link_id=3
weight=1

[system.ruby.network.int_link_buffers00]
type=MessageBuffer
buffer_size=0
eventq_index=0
ordered=true
randomization=false

[system.ruby.network.int_link_buffers01]
type=MessageBuffer
buffer_size=0
eventq_index=0
ordered=true
randomization=false

[system.ruby.network.int_link_buffers02]
type=MessageBuffer
buffer_size=0
eventq_index=0
ordered=true
randomization=false

[system.ruby.network.int_link_buffers03]
type=MessageBuffer
buffer_size=0
eventq_index=0
ordered=true
randomization=false

[system.ruby.network.int_link_buffers04]
type=MessageBuffer
buffer_size=0
eventq_index=0
ordered=true
randomization=false

[system.ruby.network.int_link_buffers05]
type=MessageBuffer
buffer_size=0
eventq_index=0
ordered=true
randomization=false

[system.ruby.network.int_link_buffers06]
type=MessageBuffer
buffer_size=0
eventq_index=0
ordered=true
randomization=false

[system.ruby.network.int_link_buffers07]
type=MessageBuffer
buffer_size=0
eventq_index=0
ordered=true
randomization=false

[system.ruby.network.int_link_buffers08]
type=MessageBuffer
buffer_size=0
eventq_index=0
ordered=true
randomization=false

[system.ruby.network.int_link_buffers09]
type=MessageBuffer
buffer_size=0
eventq_index=0
ordered=true
randomization=false

[system.ruby.network.int_link_buffers10]
type=MessageBuffer
buffer_size=0
eventq_index=0
ordered=true
randomization=false

[system.ruby.network.int_link_buffers11]
type=MessageBuffer
buffer_size=0
eventq_index=0
ordered=true
randomization=false

[system.ruby.network.int_link_buffers12]
type=MessageBuffer
buffer_size=0
eventq_index=0
ordered=true
randomization=false

[system.ruby.network.int_link_buffers13]
type=MessageBuffer
buffer_size=0
eventq_index=0
ordered=true
randomization=false

[system.ruby.network.int_link_buffers14]
type=MessageBuffer
buffer_size=0
eventq_index=0
ordered=true
randomization=false

[system.ruby.network.int_link_buffers15]
type=MessageBuffer
buffer_size=0
eventq_index=0
ordered=true
randomization=false

[system.ruby.network.int_link_buffers16]
type=MessageBuffer
buffer_size=0
eventq_index=0
ordered=true
randomization=false

[system.ruby.network.int_link_buffers17]
type=MessageBuffer
buffer_size=0
eventq_index=0
ordered=true
randomization=false

[system.ruby.network.int_link_buffers18]
type=MessageBuffer
buffer_size=0
eventq_index=0
ordered=true
randomization=false

[system.ruby.network.int_link_buffers19]
type=MessageBuffer
buffer_size=0
eventq_index=0
ordered=true
randomization=false

[system.ruby.network.int_link_buffers20]
type=MessageBuffer
buffer_size=0
eventq_index=0
ordered=true
randomization=false

[system.ruby.network.int_link_buffers21]
type=MessageBuffer
buffer_size=0
eventq_index=0
ordered=true
randomization=false

[system.ruby.network.int_link_buffers22]
type=MessageBuffer
buffer_size=0
eventq_index=0
ordered=true
randomization=false

[system.ruby.network.int_link_buffers23]
type=MessageBuffer
buffer_size=0
eventq_index=0
ordered=true
randomization=false

[system.ruby.network.int_link_buffers24]
type=MessageBuffer
buffer_size=0
eventq_index=0
ordered=true
randomization=false

[system.ruby.network.int_link_buffers25]
type=MessageBuffer
buffer_size=0
eventq_index=0
ordered=true
randomization=false

[system.ruby.network.int_link_buffers26]
type=MessageBuffer
buffer_size=0
eventq_index=0
ordered=true
randomization=false

[system.ruby.network.int_link_buffers27]
type=MessageBuffer
buffer_size=0
eventq_index=0
ordered=true
randomization=false

[system.ruby.network.int_link_buffers28]
type=MessageBuffer
buffer_size=0
eventq_index=0
ordered=true
randomization=false

[system.ruby.network.int_link_buffers29]
type=MessageBuffer
buffer_size=0
eventq_index=0
ordered=true
randomization=false

[system.ruby.network.int_link_buffers30]
type=MessageBuffer
buffer_size=0
eventq_index=0
ordered=true
randomization=false

[system.ruby.network.int_link_buffers31]
type=MessageBuffer
buffer_size=0
eventq_index=0
ordered=true
randomization=false

[system.ruby.network.int_link_buffers32]
type=MessageBuffer
buffer_size=0
eventq_index=0
ordered=true
randomization=false

[system.ruby.network.int_link_buffers33]
type=MessageBuffer
buffer_size=0
eventq_index=0
ordered=true
randomization=false

[system.ruby.network.int_link_buffers34]
type=MessageBuffer
buffer_size=0
eventq_index=0
ordered=true
randomization=false

[system.ruby.network.int_link_buffers35]
type=MessageBuffer
buffer_size=0
eventq_index=0
ordered=true
randomization=false

[system.ruby.network.int_link_buffers36]
type=MessageBuffer
buffer_size=0
eventq_index=0
ordered=true
randomization=false

[system.ruby.network.int_link_buffers37]
type=MessageBuffer
buffer_size=0
eventq_index=0
ordered=true
randomization=false

[system.ruby.network.int_link_buffers38]
type=MessageBuffer
buffer_size=0
eventq_index=0
ordered=true
randomization=false

[system.ruby.network.int_link_buffers39]
type=MessageBuffer
buffer_size=0
eventq_index=0
ordered=true
randomization=false

[system.ruby.network.int_link_buffers40]
type=MessageBuffer
buffer_size=0
eventq_index=0
ordered=true
randomization=false

[system.ruby.network.int_link_buffers41]
type=MessageBuffer
buffer_size=0
eventq_index=0
ordered=true
randomization=false

[system.ruby.network.int_link_buffers42]
type=MessageBuffer
buffer_size=0
eventq_index=0
ordered=true
randomization=false

[system.ruby.network.int_link_buffers43]
type=MessageBuffer
buffer_size=0
eventq_index=0
ordered=true
randomization=false

[system.ruby.network.int_link_buffers44]
type=MessageBuffer
buffer_size=0
eventq_index=0
ordered=true
randomization=false

[system.ruby.network.int_link_buffers45]
type=MessageBuffer
buffer_size=0
eventq_index=0
ordered=true
randomization=false

[system.ruby.network.int_link_buffers46]
type=MessageBuffer
buffer_size=0
eventq_index=0
ordered=true
randomization=false

[system.ruby.network.int_link_buffers47]
type=MessageBuffer
buffer_size=0
eventq_index=0
ordered=true
randomization=false

[system.ruby.network.int_links0]
type=SimpleIntLink